<?xml version="1.0"?>
<routes>
	<!-- VEHICLE TYPES -->
    <vType id="smart_car" accel="5" decel="9.0" sigma="0.5" length="4" minGap="1.5" maxSpeed="42" color="1,0.55,0" probability="1" tau="2.0"
        carFollowModel="IDM" tauEngine="0.5" omegaN="0.2" xi="1" c1="0.5" lanesCount="4" ccAccel="1.5" ploegKp="0.2" ploegKd="0.7" ploegH="0.5" />          
    <vType id="normal_car" accel="5" decel="9.0" sigma="0.5" length="4" minGap="1.5" maxSpeed="42" color="1,0,0" probability="1" tau="2.0"
        carFollowModel="IDM" tauEngine="0.5" omegaN="0.2" xi="1" c1="0.5" lanesCount="4" ccAccel="1.5" ploegKp="0.2" ploegKd="0.7" ploegH="0.5" />       
    <vType id="human_car" accel="5" decel="9.0" sigma="0.5" length="4" minGap="1.5" maxSpeed="40" color="0,0,1" vClass="passenger" guiShape="passenger" speedFactor="1" departSpeed="40" carFollowModel="IDM" />
    
    <!--
    
    <vType id="normal_car" vClass="passenger" maxSpeed="40" speedFactor="0.9" speedDev="0.2" sigma="0.5" />
    <vType id="sporty_car" vClass="passenger" maxSpeed="60" speedFactor="1.3" speedDev="0.1" sigma="0.1" />
    <vType id="trailer" vClass="trailer"  maxSpeed="30" speedFactor="1.1" speedDev="0.1" />
    <vType id="coach" vClass="coach"  maxSpeed="30" speedFactor="1." speedDev="0.1" />
   
   
 	<flow id="normal" type="normal_car" begin="0" end="5000" number="300" from="entry" to="exit" departPos="last" departLane="best" />
    <flow id="sporty" type="sporty_car" begin="0" end="5000" number="300" from="entry" to="exit" departPos="last" departLane="best" />
    <flow id="coach" type="coach" begin="0" end="5000" number="300" from="entry" to="exit" departPos="last" departLane="best" />
    <flow id="trailer" type="trailer" begin="0" end="5000" number="700" from="entry" to="exit" departPos="last" departLane="best" />
    
    -->
    
    <vType id="sporty_car" vClass="passenger" maxSpeed="60" speedFactor="1.3" speedDev="0.1" sigma="0.1" />
    <vType id="trailer" vClass="trailer"  maxSpeed="30" speedFactor="1.1" speedDev="0.1" />
    <vType id="coach" vClass="coach"  maxSpeed="30" speedFactor="1." speedDev="0.1" />
    
    <route id="r1" edges="entry longEdge exit"/>
    <flow id="normal" type="normal_car" begin="0" period="0.1" number="50" departSpeed="27.77" from="entry" to="exit" departPos="last" departLane="best" />
    <flow id="coach" type="coach" begin="0" period="0.1" number="50" departSpeed="27.77" from="entry" to="exit" departPos="last" departLane="best" />
    <flow id="trailer" type="trailer" begin="0" period="0.1" number="50" departSpeed="27.77" from="entry" to="exit" departPos="last" departLane="best" />
   
</routes>
