<net xmlns:xsi="http://www.w3.org/2001/XMLSchema-instance" junctionCornerDetail="5" limitTurnSpeed="5.500000" version="1.6" xsi:noNamespaceSchemaLocation="http://sumo.dlr.de/xsd/net_file.xsd">

    <location convBoundary="0.000000,0.000000,461.660000,485.420000" netOffset="230.830000,242.710000" origBoundary="-230.830000,-242.710000,230.830000,242.710000" projParameter="!" />

    <edge function="internal" id=":node1_0">
        <lane id=":node1_0_0" index="0" length="0.100000" shape="299.687528,454.631657 299.687528,454.631657" speed="13.900000" />
        <lane id=":node1_0_1" index="1" length="0.100000" shape="300.676517,457.674994 300.676517,457.674994" speed="13.900000" />
        <lane id=":node1_0_2" index="2" length="0.100000" shape="301.665506,460.718331 301.665506,460.718331" speed="13.900000" />
    </edge>
    <edge function="internal" id=":node2_0">
        <lane id=":node2_0_0" index="0" length="0.100000" shape="161.972472,30.788343 161.972472,30.788343" speed="13.900000" />
        <lane id=":node2_0_1" index="1" length="0.100000" shape="160.983483,27.745006 160.983483,27.745006" speed="13.900000" />
        <lane id=":node2_0_2" index="2" length="0.100000" shape="159.994494,24.701669 159.994494,24.701669" speed="13.900000" />
    </edge>

    <edge from="node1" id="edg1" length="750.000000" priority="-1" shape="302.160000,462.240000 373.490000,439.060000 461.660000,317.710000 461.660000,167.710000 373.490000,46.360000 230.830000,0.000000 159.500000,23.180000" to="node2">
        <lane id="edg1_0" index="0" length="725.27864045" shape="299.687528,454.631657 368.545706,432.254921 453.660000,315.110545 453.660000,170.309455 368.545706,53.165079 230.830000,8.411818 161.972472,30.788343" speed="13.900000" />
        <lane id="edg1_1" index="1" length="735.16718427" shape="300.676517,457.674994 370.523423,434.976953 456.860000,316.150327 456.860000,169.269673 370.523423,50.443047 230.830000,5.047091 160.983483,27.745006" speed="13.900000" />
        <lane id="edg1_2" index="2" length="745.05572809" shape="301.665506,460.718331 372.501141,437.698984 460.060000,317.190109 460.060000,168.229891 372.501141,47.721016 230.830000,1.682364 159.994494,24.701669" speed="13.900000" />
    </edge>
    <edge from="node2" id="edg2" length="750.000000" priority="-1" shape="159.500000,23.180000 88.170000,46.360000 0.000000,167.710000 0.000000,317.710000 88.170000,439.060000 230.830000,485.420000 302.160000,462.240000" to="node1">
        <lane id="edg2_0" index="0" length="725.27864045" shape="161.972472,30.788343 93.114294,53.165079 8.000000,170.309455 8.000000,315.110545 93.114294,432.254921 230.830000,477.008182 299.687528,454.631657" speed="13.900000" />
        <lane id="edg2_1" index="1" length="735.16718427" shape="160.983483,27.745006 91.136577,50.443047 4.800000,169.269673 4.800000,316.150327 91.136577,434.976953 230.830000,480.372909 300.676517,457.674994" speed="13.900000" />
        <lane id="edg2_2" index="2" length="745.05572809" shape="159.994494,24.701669 89.158859,47.721016 1.600000,168.229891 1.600000,317.190109 89.158859,437.698984 230.830000,483.737636 301.665506,460.718331" speed="13.900000" />
    </edge>

    <junction id="node1" incLanes="edg2_0 edg2_1 edg2_2" intLanes=":node1_0_0 :node1_0_1 :node1_0_2" shape="302.160000,462.240000 299.193034,453.109988 302.160000,462.240000" type="priority" x="302.160000" y="462.240000">
        <request cont="0" foes="000" index="0" response="000" />
        <request cont="0" foes="000" index="1" response="000" />
        <request cont="0" foes="000" index="2" response="000" />
    </junction>
    <junction id="node2" incLanes="edg1_0 edg1_1 edg1_2" intLanes=":node2_0_0 :node2_0_1 :node2_0_2" shape="162.466966,32.310012 159.500000,23.180000 162.466966,32.310012" type="priority" x="159.500000" y="23.180000">
        <request cont="0" foes="000" index="0" response="000" />
        <request cont="0" foes="000" index="1" response="000" />
        <request cont="0" foes="000" index="2" response="000" />
    </junction>

    <connection dir="s" from="edg1" fromLane="0" state="M" to="edg2" toLane="0" via=":node2_0_0" />
    <connection dir="s" from="edg1" fromLane="1" state="M" to="edg2" toLane="1" via=":node2_0_1" />
    <connection dir="s" from="edg1" fromLane="2" state="M" to="edg2" toLane="2" via=":node2_0_2" />
    <connection dir="s" from="edg2" fromLane="0" state="M" to="edg1" toLane="0" via=":node1_0_0" />
    <connection dir="s" from="edg2" fromLane="1" state="M" to="edg1" toLane="1" via=":node1_0_1" />
    <connection dir="s" from="edg2" fromLane="2" state="M" to="edg1" toLane="2" via=":node1_0_2" />

    <connection dir="s" from=":node1_0" fromLane="0" state="M" to="edg1" toLane="0" />
    <connection dir="s" from=":node1_0" fromLane="1" state="M" to="edg1" toLane="1" />
    <connection dir="s" from=":node1_0" fromLane="2" state="M" to="edg1" toLane="2" />
    <connection dir="s" from=":node2_0" fromLane="0" state="M" to="edg2" toLane="0" />
    <connection dir="s" from=":node2_0" fromLane="1" state="M" to="edg2" toLane="1" />
    <connection dir="s" from=":node2_0" fromLane="2" state="M" to="edg2" toLane="2" />

</net>