<?xml version="1.0"?>
<routes>
	<!-- VEHICLE TYPES -->
    <vType id="smart_car" accel="5" decel="9.0" sigma="0.5" length="4" minGap="1.5" maxSpeed="42" color="1,0.55,0" probability="1" tau="2.0"
        carFollowModel="IDM" tauEngine="0.5" omegaN="0.2" xi="1" c1="0.5" lanesCount="4" ccAccel="1.5" ploegKp="0.2" ploegKd="0.7" ploegH="0.5" />          
    <vType id="normal_car" accel="5" decel="9.0" sigma="0.5" length="4" minGap="1.5" maxSpeed="42" color="1,0,0" probability="1" tau="2.0"
        carFollowModel="IDM" tauEngine="0.5" omegaN="0.2" xi="1" c1="0.5" lanesCount="4" ccAccel="1.5" ploegKp="0.2" ploegKd="0.7" ploegH="0.5" />       
    <vType id="human_car" accel="5" decel="9.0" sigma="0.5" length="4" minGap="1.5" maxSpeed="40" color="0,0,1" vClass="passenger" guiShape="passenger" speedFactor="1" departSpeed="40" carFollowModel="IDM" />
    
    <!--
    <vType id="sporty_car" vClass="passenger" maxSpeed="60" speedFactor="1.3" speedDev="0.1" sigma="0.1" />
    <vType id="trailer" vClass="trailer"  maxSpeed="30" speedFactor="1.1" speedDev="0.1" />
    <vType id="coach" vClass="coach"  maxSpeed="30" speedFactor="1." speedDev="0.1" />
    -->
    
    <!-- VEHICLES -->
    
    <!--
    
    <vehicle id="0" type="smart_car" depart="0" departPos="free" color="1,0,0" route="r1" departSpeed="30" accel="2.5" decel="4.5" minGap="1.5"/>
    <vehicle id="1" type="normal_car" depart="0" departPos="free" color="1,0,0" route="r1" departSpeed="30" accel="2.5" decel="4.5" minGap="1.5"/>
    <vehicle id="2" type="normal_car" depart="0" departPos="free" color="1,0,0" route="r1" departSpeed="30" accel="2.5" decel="4.5" minGap="1.5"/>
    <vehicle id="3" type="normal_car" depart="0" departPos="free" color="1,0,0" route="r1" departSpeed="30" accel="2.5" decel="4.5" minGap="1.5"/>
    <vehicle id="4" type="normal_car" depart="0" departPos="free" color="1,0,0" route="r1" departSpeed="30" accel="2.5" decel="4.5" minGap="1.5"/>
    <vehicle id="5" type="normal_car" depart="0" departPos="free" color="1,0,0" route="r1" departSpeed="30" accel="2.5" decel="4.5" minGap="1.5"/>
    <vehicle id="6" type="normal_car" depart="0" departPos="free" color="1,0,0" route="r2" departSpeed="30" accel="2.5" decel="4.5" minGap="1.5"/>
    <vehicle id="7" type="normal_car" depart="0" departPos="free" color="1,0,0" route="r2" departSpeed="30" accel="2.5" decel="4.5" minGap="1.5"/>
    <vehicle id="8" type="normal_car" depart="0" departPos="free" color="1,0,0" route="r2" departSpeed="30" accel="2.5" decel="4.5" minGap="1.5"/>
    <vehicle id="9" type="normal_car" depart="0" departPos="free" color="1,0,0" route="r2" departSpeed="30" accel="2.5" decel="4.5" minGap="1.5"/>
    <vehicle id="10" type="normal_car" depart="0" departPos="free" color="1,0,0" route="r2" departSpeed="30" accel="2.5" decel="4.5" minGap="1.5"/>
    <vehicle id="11" type="normal_car" depart="0" departPos="free" color="1,0,0" route="r1" departSpeed="30" accel="2.5" decel="4.5" minGap="1.5"/>
    <vehicle id="12" type="normal_car" depart="0" departPos="free" color="1,0,0" route="r1" departSpeed="30" accel="2.5" decel="4.5" minGap="1.5"/>
    <vehicle id="13" type="normal_car" depart="0" departPos="free" color="1,0,0" route="r1" departSpeed="30" accel="2.5" decel="4.5" minGap="1.5"/>
    <vehicle id="14" type="normal_car" depart="0" departPos="free" color="1,0,0" route="r1" departSpeed="30" accel="2.5" decel="4.5" minGap="1.5"/>
    <vehicle id="15" type="normal_car" depart="0" departPos="free" color="1,0,0" route="r1" departSpeed="30" accel="2.5" decel="4.5" minGap="1.5"/>
    <vehicle id="16" type="normal_car" depart="0" departPos="free" color="1,0,0" route="r2" departSpeed="30" accel="2.5" decel="4.5" minGap="1.5"/>
    <vehicle id="17" type="normal_car" depart="0" departPos="free" color="1,0,0" route="r2" departSpeed="30" accel="2.5" decel="4.5" minGap="1.5"/>
    <vehicle id="18" type="normal_car" depart="0" departPos="free" color="1,0,0" route="r2" departSpeed="30" accel="2.5" decel="4.5" minGap="1.5"/>
    <vehicle id="19" type="normal_car" depart="0" departPos="free" color="1,0,0" route="r2" departSpeed="30" accel="2.5" decel="4.5" minGap="1.5"/>
    <vehicle id="20" type="normal_car" depart="0" departPos="free" color="1,0,0" route="r2" departSpeed="30" accel="2.5" decel="4.5" minGap="1.5"/>
    <vehicle id="30" type="normal_car" depart="0" departPos="free" color="1,0,0" route="r1" departSpeed="30" accel="2.5" decel="4.5" minGap="1.5"/>
    <vehicle id="31" type="normal_car" depart="0" departPos="free" color="1,0,0" route="r1" departSpeed="30" accel="2.5" decel="4.5" minGap="1.5"/>
    <vehicle id="32" type="normal_car" depart="0" departPos="free" color="1,0,0" route="r1" departSpeed="30" accel="2.5" decel="4.5" minGap="1.5"/>
    <vehicle id="33" type="normal_car" depart="0" departPos="free" color="1,0,0" route="r1" departSpeed="30" accel="2.5" decel="4.5" minGap="1.5"/>
    <vehicle id="34" type="normal_car" depart="0" departPos="free" color="1,0,0" route="r1" departSpeed="30" accel="2.5" decel="4.5" minGap="1.5"/>
    <vehicle id="35" type="normal_car" depart="0" departPos="free" color="1,0,0" route="r1" departSpeed="30" accel="2.5" decel="4.5" minGap="1.5"/>
    <vehicle id="36" type="normal_car" depart="0" departPos="free" color="1,0,0" route="r2" departSpeed="30" accel="2.5" decel="4.5" minGap="1.5"/>
    <vehicle id="37" type="normal_car" depart="0" departPos="free" color="1,0,0" route="r2" departSpeed="30" accel="2.5" decel="4.5" minGap="1.5"/>
    <vehicle id="38" type="normal_car" depart="0" departPos="free" color="1,0,0" route="r2" departSpeed="30" accel="2.5" decel="4.5" minGap="1.5"/>
    <vehicle id="39" type="normal_car" depart="0" departPos="free" color="1,0,0" route="r2" departSpeed="30" accel="2.5" decel="4.5" minGap="1.5"/>
    <vehicle id="40" type="normal_car" depart="0" departPos="free" color="1,0,0" route="r2" departSpeed="30" accel="2.5" decel="4.5" minGap="1.5"/>
    <vehicle id="41" type="normal_car" depart="0" departPos="free" color="1,0,0" route="r1" departSpeed="30" accel="2.5" decel="4.5" minGap="1.5"/>
    <vehicle id="42" type="normal_car" depart="0" departPos="free" color="1,0,0" route="r1" departSpeed="30" accel="2.5" decel="4.5" minGap="1.5"/>
    <vehicle id="43" type="normal_car" depart="0" departPos="free" color="1,0,0" route="r1" departSpeed="30" accel="2.5" decel="4.5" minGap="1.5"/>
    <vehicle id="44" type="normal_car" depart="0" departPos="free" color="1,0,0" route="r1" departSpeed="30" accel="2.5" decel="4.5" minGap="1.5"/>
    <vehicle id="45" type="normal_car" depart="0" departPos="free" color="1,0,0" route="r1" departSpeed="30" accel="2.5" decel="4.5" minGap="1.5"/>
    <vehicle id="46" type="normal_car" depart="0" departPos="free" color="1,0,0" route="r2" departSpeed="30" accel="2.5" decel="4.5" minGap="1.5"/>
    <vehicle id="47" type="normal_car" depart="0" departPos="free" color="1,0,0" route="r2" departSpeed="30" accel="2.5" decel="4.5" minGap="1.5"/>
    <vehicle id="48" type="normal_car" depart="0" departPos="free" color="1,0,0" route="r2" departSpeed="30" accel="2.5" decel="4.5" minGap="1.5"/>
    <vehicle id="49" type="normal_car" depart="0" departPos="free" color="1,0,0" route="r2" departSpeed="30" accel="2.5" decel="4.5" minGap="1.5"/>
    <vehicle id="50" type="normal_car" depart="0" departPos="free" color="1,0,0" route="r2" departSpeed="30" accel="2.5" decel="4.5" minGap="1.5"/>
    <vehicle id="60" type="normal_car" depart="0" departPos="free" color="1,0,0" route="r1" departSpeed="30" accel="2.5" decel="4.5" minGap="1.5"/>
    <vehicle id="61" type="normal_car" depart="0" departPos="free" color="1,0,0" route="r1" departSpeed="30" accel="2.5" decel="4.5" minGap="1.5"/>
    <vehicle id="62" type="normal_car" depart="0" departPos="free" color="1,0,0" route="r1" departSpeed="30" accel="2.5" decel="4.5" minGap="1.5"/>
    <vehicle id="63" type="normal_car" depart="0" departPos="free" color="1,0,0" route="r1" departSpeed="30" accel="2.5" decel="4.5" minGap="1.5"/>
    <vehicle id="64" type="normal_car" depart="0" departPos="free" color="1,0,0" route="r1" departSpeed="30" accel="2.5" decel="4.5" minGap="1.5"/>
    <vehicle id="65" type="normal_car" depart="0" departPos="free" color="1,0,0" route="r1" departSpeed="30" accel="2.5" decel="4.5" minGap="1.5"/>
    <vehicle id="66" type="normal_car" depart="0" departPos="free" color="1,0,0" route="r2" departSpeed="30" accel="2.5" decel="4.5" minGap="1.5"/>
    <vehicle id="67" type="normal_car" depart="0" departPos="free" color="1,0,0" route="r2" departSpeed="30" accel="2.5" decel="4.5" minGap="1.5"/>
    <vehicle id="68" type="normal_car" depart="0" departPos="free" color="1,0,0" route="r2" departSpeed="30" accel="2.5" decel="4.5" minGap="1.5"/>
    <vehicle id="69" type="normal_car" depart="0" departPos="free" color="1,0,0" route="r2" departSpeed="30" accel="2.5" decel="4.5" minGap="1.5"/>
    <vehicle id="70" type="normal_car" depart="0" departPos="free" color="1,0,0" route="r2" departSpeed="30" accel="2.5" decel="4.5" minGap="1.5"/>
    <vehicle id="71" type="normal_car" depart="0" departPos="free" color="1,0,0" route="r1" departSpeed="30" accel="2.5" decel="4.5" minGap="1.5"/>
    <vehicle id="72" type="normal_car" depart="0" departPos="free" color="1,0,0" route="r1" departSpeed="30" accel="2.5" decel="4.5" minGap="1.5"/>
    <vehicle id="73" type="normal_car" depart="0" departPos="free" color="1,0,0" route="r1" departSpeed="30" accel="2.5" decel="4.5" minGap="1.5"/>
    <vehicle id="74" type="normal_car" depart="0" departPos="free" color="1,0,0" route="r1" departSpeed="30" accel="2.5" decel="4.5" minGap="1.5"/>
    <vehicle id="75" type="normal_car" depart="0" departPos="free" color="1,0,0" route="r1" departSpeed="30" accel="2.5" decel="4.5" minGap="1.5"/>
    <vehicle id="76" type="normal_car" depart="0" departPos="free" color="1,0,0" route="r2" departSpeed="30" accel="2.5" decel="4.5" minGap="1.5"/>
    <vehicle id="77" type="normal_car" depart="0" departPos="free" color="1,0,0" route="r2" departSpeed="30" accel="2.5" decel="4.5" minGap="1.5"/>
    <vehicle id="78" type="normal_car" depart="0" departPos="free" color="1,0,0" route="r2" departSpeed="30" accel="2.5" decel="4.5" minGap="1.5"/>
    <vehicle id="79" type="normal_car" depart="0" departPos="free" color="1,0,0" route="r2" departSpeed="30" accel="2.5" decel="4.5" minGap="1.5"/>
    <vehicle id="80" type="normal_car" depart="0" departPos="free" color="1,0,0" route="r2" departSpeed="30" accel="2.5" decel="4.5" minGap="1.5"/>
    
    -->
    
    <!-- FLOWS (GENERATES VEHICLES OVER TIME) -->
    
    <!--
    <flow id="normal" type="human_car" begin="0" period="0.5" departLane="0" number="20" departSpeed="30" route="r1"/>
    
    <flow id="sporty" type="sporty_car" begin="0" period="0.1" departLane="0" number="50" departSpeed="27.77" route="r2"/>
    <flow id="trailer" type="trailer" begin="0" period="0.1" departLane="0" number="200" departSpeed="27.77" route="r1"/>
    <flow id="coach" type="coach" begin="0" period="0.1" departLane="0" number="100" departSpeed="27.77" route="r2"/>    
    -->
</routes>
